/*--------------------------------*- C++ -*----------------------------------*\
| =========                 |                                                 |
| \\      /  F ield         | OpenFOAM: The Open Source CFD Toolbox           |
|  \\    /   O peration     | Version:  5                                     |
|   \\  /    A nd           | Web:      www.OpenFOAM.org                      |
|    \\/     M anipulation  |                                                 |
\*---------------------------------------------------------------------------*/
FoamFile
{
    version     2.0;
    format      ascii;
    class       dictionary;
    location    "constant";
    object      tuneOptParameters;
}
// * * * * * * * * * * * * * * * * * * * * * * * * * * * * * * * * * * * * * //

convergenceControl
{
    // --------------------------------------------------------------------- //
    // Run Profile
    // --------------------------------------------------------------------- //
    optRunMode production; // production | diagnostic
    optFirstFailureSnapshotEnable       true; // write first failure snapshot
    optAdjointRollbackGuardsEnable      false; // Ua/Ub rollback guards (forced on in Pro mode when proModeAdjointStabilityPack=true)

    // --------------------------------------------------------------------- //
    // Thermal Adjoint Selector
    // --------------------------------------------------------------------- //
    optThermalAdjointMode ta; // ta | tb

    // --------------------------------------------------------------------- //
    // MMA Step Controls
    // --------------------------------------------------------------------- //
    optPowerConstraintWeight      1;
    optVolumeConstraintWeight     1;

    // --------------------------------------------------------------------- //
    // Formulation Controls
    // --------------------------------------------------------------------- //
    // Turbulence-closure denominator regularization controls.
    optClosureLogRegularizationEnable true;
    optClosureSmoothDenominatorEnable true;
    optKOmegaPositivityPreservingLinearizationEnable true;
    optClosureNutRegularizationScale 1e-3; // local nut regularization floor scale (multiplies nu).

    // Smooth projection (tanh) controls for Heaviside continuation.
    optProjectionSmoothingEnable true;
    optProjectionBetaScale    0.3;

    // Toggle explicit volume weighting in filtered sensitivities (non-uniform mesh robustness).
    optSensitivityVolumeWeightingEnable true;

    // Trust-ratio-based adaptive MMA move-limit controls.
    optAdaptiveMoveLimitEnable true;
    optAdaptiveMoveLimitMin            0.03;
    optAdaptiveMoveLimitMax            0.15;
    optAdaptiveMoveLimitTrustRatioShrink        0.25;
    optAdaptiveMoveLimitTrustRatioGrow          0.75;
    optAdaptiveMoveLimitShrinkFactor   0.70;
    optAdaptiveMoveLimitGrowFactor     1.15;
    optAdaptiveMoveLimitNegativeTrustDamping  0.50;

    // Health-driven continuation governor for unstable SST/SA regimes.
    optStabilityContinuationGovernorEnable true;
    optStabilityContinuationGovernorConstraintPenaltyThreshold 8.0;
    optStabilityContinuationGovernorLinearPenaltyThreshold 5.0;
    optStabilityContinuationGovernorSlowFactor 0.35;
    optStabilityContinuationGovernorMoveLimitScale 0.70;
    optStabilityContinuationGovernorTrustUndefinedBlocks true;

    // Ramp porous turbulence suppression to avoid early over-damping.
    optTurbulenceSuppressionRampEnable true;
    optTurbulenceSuppressionRampStartIteration 1;
    optTurbulenceSuppressionRampEndIteration 120;
    optTurbulenceSuppressionRampMinScale 0.25;

    // Wall-function diagnostics (high-Re coarse-mesh suitability checks).
    optWallFunctionYPlusDiagnosticsEnable true;
    optWallFunctionYPlusMin      30.0;
    optWallFunctionYPlusMax      300.0;
    optWallFunctionYPlusInBandWarnFraction 0.50; // Warn if in-band fraction falls below this.

    // Converged-stop gate for turbulent SA/SST runs: do not accept "converged"
    // when design is still mostly gray and trust penalty is saturated.
    optConvergedGrayTrustGateEnable true;
    optConvergedGrayTrustGateMinIterations 50;
    optConvergedGrayFractionThreshold 0.50;
    optConvergedTrustPenaltySaturationThreshold 9.90;
    optConvergedGrayTrustGateUndefinedTrustBlocks true; // also block when trust ratio is undefined (predicted reduction collapsed)

    // --------------------------------------------------------------------- //
    // Thermal Envelope Constraints
    // --------------------------------------------------------------------- //
    optThermalEnvelopeConstraintsEnable false; // disable while tuning objFunction=3 to avoid envelope/obj coupling
    optThermalTmaxLimit           15.0; // upper envelope limit for Tmax KS constraint
    optThermalTminLimit           0.0; // lower envelope limit for Tmin KS constraint
    optThermalKSBeta              24.0; // KS aggregation sharpness for envelope constraints

    // --------------------------------------------------------------------- //
    // Thermal Excess Objective (ObjFunction 3: SmoothExcessT)
    // --------------------------------------------------------------------- //
    optThermalBoundedObjectiveEnable false; // required for SmoothExcessT when objFunction=3
    optThermalExcessTref          2.8; // focus objective on upper thermal tail (hotspot range)
    optThermalExcessSoftplusScale 0.75; // moderate smoothing: sharper than 1.0, safer than very small values

    // Convergence Stop
    // --------------------------------------------------------------------- //
    optMinIterations              50;
    optStallWindow                5;
    optObjectiveTol               1e-3;
    optConstraintTol              1e-3;
    optStepTol                    5e-3;
}

// * * * * * * * * * * * * * * * * * * * * * * * * * * * * * * * * * * * * * //
