/*--------------------------------*- C++ -*----------------------------------*\
| =========                 |                                                 |
| \\      /  F ield         | OpenFOAM: The Open Source CFD Toolbox           |
|  \\    /   O peration     | Version:  5                                     |
|   \\  /    A nd           | Web:      www.OpenFOAM.org                      |
|    \\/     M anipulation  |                                                 |
\*---------------------------------------------------------------------------*/
FoamFile
{
    version     2.0;
    format      ascii;
    class       dictionary;
    location    "constant";
    object      tuneOptParameters;
}
// * * * * * * * * * * * * * * * * * * * * * * * * * * * * * * * * * * * * * //

convergenceControl
{
    // --------------------------------------------------------------------- //
    // Run Profile
    // --------------------------------------------------------------------- //
    optRunMode production; // production | diagnostic
    optFirstFailureSnapshotEnable       true; // write first failure snapshot
    optAdjointRollbackGuardsEnable      false; // Ua/Ub rollback guards

    // --------------------------------------------------------------------- //
    // Thermal Adjoint Selector
    // --------------------------------------------------------------------- //
    optThermalAdjointMode tbOriginal; // ta | tbOriginal | tbLaminar

    // --------------------------------------------------------------------- //
    // Thermal Objective/Constraint Targets
    // --------------------------------------------------------------------- //
    optThermalExcessTref          1.0;
    optThermalExcessSoftplusScale 0.5;
    optThermalTmaxLimit           15.0;
    optThermalTminLimit           0.0;
    optThermalKSBeta              24.0;

    // --------------------------------------------------------------------- //
    // MMA Step Controls
    // --------------------------------------------------------------------- //
    optPowerConstraintWeight      1;
    optVolumeConstraintWeight     5;

    // --------------------------------------------------------------------- //
    // Formulation Controls
    // --------------------------------------------------------------------- //
    // Turbulence-closure denominator regularization controls.
    optClosureLogRegularizationEnable true;
    optClosureSmoothDenominatorEnable true;
    optKOmegaPositivityPreservingLinearizationEnable true;

    // Smooth projection (tanh) controls for Heaviside continuation.
    optProjectionSmoothingEnable true;
    optProjectionBetaScale    1.0;

    // Trust-ratio-based adaptive MMA move-limit controls.
    optAdaptiveMoveLimitEnable false;
    optAdaptiveMoveLimitMin            0.05;
    optAdaptiveMoveLimitMax            0.30;
    optAdaptiveMoveLimitTrustRatioShrink        0.25;
    optAdaptiveMoveLimitTrustRatioGrow          0.75;
    optAdaptiveMoveLimitShrinkFactor   0.70;
    optAdaptiveMoveLimitGrowFactor     1.15;
    optAdaptiveMoveLimitNegativeTrustDamping  0.50;

    // Dedicated thermal-envelope sensitivity controls.
    optThermalEnvelopeConstraintsEnable true;
    optDedicatedThermalEnvelopeAdjointsEnable true;

    // Convergence Stop
    // --------------------------------------------------------------------- //
    optMinIterations              50;
    optStallWindow                5;
    optObjectiveTol               1e-3;
    optConstraintTol              1e-3;
    optStepTol                    5e-3;
}

// * * * * * * * * * * * * * * * * * * * * * * * * * * * * * * * * * * * * * //
