/*--------------------------------*- C++ -*----------------------------------*\
| =========                 |                                                 |
| \\      /  F ield         | OpenFOAM: The Open Source CFD Toolbox           |
|  \\    /   O peration     | Version:  5                                     |
|   \\  /    A nd           | Web:      www.OpenFOAM.org                      |
|    \\/     M anipulation  |                                                 |
\*---------------------------------------------------------------------------*/
FoamFile
{
    version     2.0;
    format      ascii;
    class       dictionary;
    location    "constant";
    object      tuneOptParameters;
}
// * * * * * * * * * * * * * * * * * * * * * * * * * * * * * * * * * * * * * //

convergenceControl
{
    // --------------------------------------------------------------------- //
    // Run Profile
    // --------------------------------------------------------------------- //
    optRunMode production; // production | diagnostic
    optFirstFailureSnapshotEnable       true; // write first failure snapshot
    optAdjointRollbackGuardsEnable      false; // Ua/Ub rollback guards

    // --------------------------------------------------------------------- //
    // Thermal Adjoint Selector
    // --------------------------------------------------------------------- //
    optThermalAdjointMode tbOriginal; // ta | tbOriginal | tbLaminar

    // --------------------------------------------------------------------- //
    // MMA Step Controls
    // --------------------------------------------------------------------- //
    optPowerConstraintWeight      1;
    optVolumeConstraintWeight     5;

    // --------------------------------------------------------------------- //
    // Formulation Controls
    // --------------------------------------------------------------------- //
    // Turbulence-closure denominator regularization controls.
    optClosureLogRegularizationEnable true;
    optClosureSmoothDenominatorEnable true;
    optKOmegaPositivityPreservingLinearizationEnable true;

    // Smooth projection (tanh) controls for Heaviside continuation.
    optProjectionSmoothingEnable true;
    optProjectionBetaScale    1.0;

    // Trust-ratio-based adaptive MMA move-limit controls.
    optAdaptiveMoveLimitEnable false;
    optAdaptiveMoveLimitMin            0.05;
    optAdaptiveMoveLimitMax            0.30;
    optAdaptiveMoveLimitTrustRatioShrink        0.25;
    optAdaptiveMoveLimitTrustRatioGrow          0.75;
    optAdaptiveMoveLimitShrinkFactor   0.70;
    optAdaptiveMoveLimitGrowFactor     1.15;
    optAdaptiveMoveLimitNegativeTrustDamping  0.50;

    // --------------------------------------------------------------------- //
    // Thermal Envelope Constraints
    // --------------------------------------------------------------------- //
    optThermalEnvelopeConstraintsEnable true; // master switch for MMA Tmax/Tmin envelope constraints
    optDedicatedThermalEnvelopeAdjointsEnable true; // when master=true: dedicated TbThermalTmax/Tmin adjoints; when false: surrogate map
    optThermalTmaxLimit           15.0; // upper envelope limit for Tmax KS constraint
    optThermalTminLimit           0.0; // lower envelope limit for Tmin KS constraint
    optThermalKSBeta              24.0; // KS aggregation sharpness for envelope constraints
    optThermalEnvelopeExpArgClamp 60.0; // clamps KS exponent arguments to [-value,+value] to avoid overflow/underflow
    optThermalAdjointDiagReg      1e-8; // diagonal regularization for TbThermalTmax/Tmin equations (units: 1/s)

    // --------------------------------------------------------------------- //
    // Thermal Excess Objective (ObjFunction 3: SmoothExcessT)
    // --------------------------------------------------------------------- //
    optThermalExcessTref          1.0; // reference temperature Tref used only by SmoothExcessT objective (objFunction=3)
    optThermalExcessSoftplusScale 0.5; // smoothness scale for SmoothExcessT and envelope softplus transitions

    // Convergence Stop
    // --------------------------------------------------------------------- //
    optMinIterations              50;
    optStallWindow                5;
    optObjectiveTol               1e-3;
    optConstraintTol              1e-3;
    optStepTol                    5e-3;
}

// * * * * * * * * * * * * * * * * * * * * * * * * * * * * * * * * * * * * * //
